
work_directory = os.path.join(workflow.basedir, "workdir_{nxmax}_{nzmax}_{repeat}")
MESHFEM_BIN = "xmeshfem2D"
SPECFEM_BIN = "specfem2d"
