SPECFEM_BIN = "specfem2d"
MESHFEM_BIN = "xmeshfem2D"


rule all:
    input:
        plot="@CMAKE_CURRENT_SOURCE_DIR@/OUTPUT_FILES/results/plot.png",
    localrule: True


rule generate_mesh:
    input:
        "Par_File",
    output:
        database="@CMAKE_CURRENT_SOURCE_DIR@/OUTPUT_FILES/database.bin",
        stations="@CMAKE_CURRENT_SOURCE_DIR@/OUTPUT_FILES/STATIONS",
    localrule: True
    shell:
        """
            mkdir -p @CMAKE_CURRENT_SOURCE_DIR@/OUTPUT_FILES
            {MESHFEM_BIN} -p {input}
        """


rule run_solver:
    input:
        database="@CMAKE_CURRENT_SOURCE_DIR@/OUTPUT_FILES/database.bin",
        stations="@CMAKE_CURRENT_SOURCE_DIR@/OUTPUT_FILES/STATIONS",
        source="sources.yaml",
        config="specfem_config.yaml",
    output:
        seismograms=expand(
            "@CMAKE_CURRENT_SOURCE_DIR@/OUTPUT_FILES/results/{network_name}.{station_name}.S2.{component}.semd",
            station_name=[
                "S0010",
                "S0020",
                "S0030",
                "S0040",
            ],
            network_name=["AA"],
            component=["BXX", "BXZ"],
        ),
    shell:
        """
            mkdir -p OUTPUT_FILES/results
            echo "Hostname: $(hostname)" > output.log
            {SPECFEM_BIN} -p {input.config} >> output.log
        """


rule plot_seismogram:
    input:
        trace_files=expand(
            "@CMAKE_CURRENT_SOURCE_DIR@/OUTPUT_FILES/results/{network_name}.{station_name}.S2.{component}.semd",
            station_name=[
                "S0010",
                "S0020",
                "S0030",
                "S0040",
            ],
            network_name=["AA"],
            component=["BXX", "BXZ"],
        ),
    output:
        traces="@CMAKE_CURRENT_SOURCE_DIR@/OUTPUT_FILES/results/plot.png",
    localrule: True
    run:
        import glob
        import os
        import numpy as np
        import obspy
        import matplotlib
        import matplotlib.pyplot as plt
        matplotlib.use("agg")

        def get_traces(directory):
            traces = []
            station_name=[
                "S0010",
                "S0020",
                "S0030",
                "S0040",
            ]

            # Only get a selected few stations
            files = []
            for station in station_name:
                globstr = directory + f"/AA.{station}.S2.BX?.semd"
                files.extend(glob.glob(globstr))

            ## iterate over all seismograms
            for filename in files:
                station_id = os.path.splitext(filename)[0]
                station_id = station_id.split("/")[-1]
                network, station, location, component = station_id.split(".")[:4]
                trace = np.loadtxt(filename, delimiter=" ")
                starttime = trace[0, 0]
                dt = trace[1, 0] - trace[0, 0]
                traces.append(
                    obspy.Trace(
                        trace[:, 1],
                        {"network": network,
                         "station": station,
                         "location": location,
                         "channel": component,
                         "starttime": starttime,
                         "delta": dt},
                    )
                )

            stream = obspy.Stream(traces).select(component="Z")

            return stream


        stream = get_traces("@CMAKE_CURRENT_SOURCE_DIR@/OUTPUT_FILES/results")
        stream.plot(size=(800, 1000)).savefig(output.traces)


rule clean:
    shell:
        """
            rm -rf OUTPUT_FILES
        """
